(SAIFILE
   (SAIFVERSION "2.0")
   (DIRECTION "backward")
   (DESIGN )
   (DATE "Tue Mar 26 15:51:00 2019")
   (VENDOR "Xilinx, Inc")
   (PROGRAM_NAME "Vivado Simulator")
   (VERSION "2018.2")
   (DIVIDER /)
   (TIMESCALE  1 ps)
   (DURATION  20000000)
)
